<edges>
  <edge id="bottom" from="bottom" to="right" type="a" shape="0.0000000000000029236288743895317,-47.7464829275686 1.9225570219966945,-47.70776044261322 3.8419956494731844,-47.59165579575929 5.755202545956575,-47.39835730916858 7.659074482864461,-47.12817851369321 9.550523372952972,-46.78155764032744 11.426481279205618,-46.35905690939542 13.283905391038344,-45.86136161862775 15.119782959749402,-45.28927903160605 16.931136185208818,-44.6437370683785 18.715027045861017,-43.92578280037011 20.468562064206584,-43.13658075202905 22.188897000033325,-42.27741101196373 23.873241463784296,-41.3496671566344 25.51886344257991,-40.35485398996704 27.12309373155271,-39.29458510255588 28.683330263307568,-38.17058025441353 30.197042328484393,-36.98466258551404 31.661774680578034,-35.738755658653076 33.07515151835708,-34.434880339422136 34.43488033942213,-33.07515151835708 35.738755658653076,-31.661774680578034 36.98466258551404,-30.197042328484393 38.17058025441353,-28.683330263307568 39.29458510255587,-27.12309373155271 40.35485398996704,-25.518863442579903 41.3496671566344,-23.8732414637843 42.27741101196373,-22.18889700003332 43.136580752029055,-20.46856206420658 43.92578280037011,-18.715027045861014 44.6437370683785,-16.931136185208825 45.28927903160604,-15.11978295974941 45.86136161862775,-13.283905391038342 46.35905690939542,-11.426481279205616 46.78155764032744,-9.550523372952968 47.12817851369321,-7.659074482864468 47.39835730916858,-5.755202545956583 47.59165579575929,-3.8419956494731817 47.70776044261322,-1.9225570219966917 47.7464829275686,0"/>
  <edge id="right" from="right" to="top" type="a" shape="47.7464829275686,0 47.70776044261322,1.9225570219966897 47.591655795759294,3.8419956494731777 47.39835730916858,5.755202545956577 47.12817851369321,7.65907448286446 46.78155764032744,9.550523372952968 46.35905690939542,11.426481279205614 45.861361618627754,13.283905391038338 45.28927903160604,15.119782959749404 44.6437370683785,16.931136185208818 43.92578280037011,18.715027045861014 43.136580752029055,20.46856206420658 42.27741101196373,22.188897000033318 41.3496671566344,23.873241463784296 40.35485398996705,25.5188634425799 39.29458510255588,27.123093731552707 38.17058025441353,28.68333026330756 36.98466258551404,30.197042328484393 35.73875565865308,31.66177468057803 34.434880339422136,33.07515151835708 33.07515151835709,34.43488033942213 31.66177468057804,35.738755658653076 30.197042328484393,36.98466258551404 28.68333026330757,38.17058025441353 27.123093731552718,39.29458510255587 25.51886344257991,40.35485398996704 23.873241463784304,41.3496671566344 22.188897000033325,42.27741101196373 20.468562064206584,43.13658075202905 18.715027045861017,43.92578280037011 16.93113618520883,44.64373706837849 15.119782959749413,45.28927903160604 13.283905391038344,45.86136161862775 11.426481279205618,46.35905690939542 9.550523372952972,46.78155764032744 7.6590744828644715,47.12817851369321 5.755202545956585,47.39835730916858 3.8419956494731844,47.59165579575929 1.9225570219966945,47.70776044261322 0.0000000000000029236288743895317,47.7464829275686"/>
  <edge id="top" from="top" to="left" type="a" shape="0.0000000000000029236288743895317,47.7464829275686 -1.922557021996689,47.70776044261322 -3.841995649473178,47.59165579575929 -5.755202545956569,47.39835730916858 -7.659074482864455,47.12817851369321 -9.550523372952966,46.78155764032744 -11.426481279205612,46.35905690939542 -13.283905391038338,45.861361618627754 -15.119782959749397,45.28927903160605 -16.93113618520881,44.6437370683785 -18.715027045861014,43.92578280037011 -20.468562064206566,43.136580752029055 -22.188897000033318,42.27741101196373 -23.87324146378429,41.3496671566344 -25.518863442579903,40.35485398996704 -27.123093731552707,39.29458510255588 -28.68333026330755,38.170580254413544 -30.197042328484386,36.98466258551404 -31.661774680578024,35.73875565865309 -33.07515151835708,34.434880339422136 -34.43488033942213,33.07515151835709 -35.73875565865307,31.661774680578045 -36.98466258551403,30.197042328484393 -38.17058025441352,28.683330263307578 -39.29458510255587,27.12309373155271 -40.35485398996703,25.51886344257991 -41.349667156634396,23.873241463784314 -42.27741101196373,22.188897000033325 -43.136580752029055,20.468562064206573 -43.92578280037011,18.71502704586102 -44.64373706837849,16.93113618520883 -45.28927903160604,15.119782959749426 -45.86136161862775,13.283905391038347 -46.35905690939542,11.426481279205612 -46.78155764032744,9.550523372952973 -47.12817851369321,7.659074482864474 -47.39835730916858,5.755202545956599 -47.59165579575929,3.8419956494731875 -47.70776044261322,1.922557021996687 -47.7464829275686,0.000000000000005847257748779063"/>
  <edge id="left" from="left" to="bottom" type="a" shape="-47.7464829275686,0.000000000000005847257748779063 -47.70776044261323,-1.9225570219966752 -47.591655795759294,-3.8419956494731755 -47.39835730916858,-5.755202545956567 -47.12817851369321,-7.659074482864463 -46.78155764032744,-9.550523372952963 -46.35905690939543,-11.4264812792056 -45.861361618627754,-13.283905391038337 -45.28927903160605,-15.119782959749394 -44.6437370683785,-16.931136185208818 -43.92578280037011,-18.71502704586101 -43.136580752029055,-20.468562064206562 -42.27741101196373,-22.188897000033315 -41.34966715663441,-23.873241463784286 -40.35485398996705,-25.5188634425799 -39.29458510255588,-27.1230937315527 -38.170580254413544,-28.68333026330755 -36.984662585514045,-30.197042328484386 -35.73875565865309,-31.661774680578024 -34.434880339422136,-33.07515151835708 -33.075151518357096,-34.43488033942212 -31.661774680578052,-35.73875565865307 -30.197042328484414,-36.984662585514016 -28.68333026330756,-38.17058025441353 -27.123093731552718,-39.29458510255587 -25.518863442579914,-40.35485398996703 -23.87324146378432,-41.349667156634396 -22.18889700003331,-42.277411011963736 -20.468562064206576,-43.136580752029055 -18.71502704586102,-43.92578280037011 -16.931136185208832,-44.64373706837849 -15.119782959749429,-45.28927903160604 -13.28390539103837,-45.86136161862774 -11.426481279205614,-46.35905690939542 -9.550523372952977,-46.78155764032744 -7.659074482864477,-47.12817851369321 -5.755202545956602,-47.39835730916858 -3.841995649473169,-47.591655795759294 -1.9225570219966899,-47.70776044261322 -0.000000000000008770886623168594,-47.7464829275686"/>
</edges>
