<nodes>
  <node id="bottom" x="0.00" y="-47.75" type="priority"/>
  <node id="right" x="47.75" y="0.00" type="priority"/>
  <node id="top" x="0.00" y="47.75" type="priority"/>
  <node id="left" x="-47.75" y="0.00" type="priority"/>
</nodes>
