<routes>
  <vType id="type1" length="5" accel="5" decel="10" maxSpeed="70"/>
  <route id="r0" edges="top left bottom right top"/>
       <vehicle id="0" depart="0" departPos="base" type="type1" route="r0" color="1,1,0"/>
        <vehicle id="1" depart="60" departPos="base" type="type1" route="r0" color="1,1,0"/>
        <vehicle id="2" depart="120" departPos="base" type="type1" route="r0" color="1,1,0"/>
        <vehicle id="3" depart="180" departPos="base" type="type1" route="r0" color="1,1,0"/>
        <vehicle id="4" depart="240" departPos="base" type="type1" route="r0" color="1,1,0"/>
        <vehicle id="5" depart="300" departPos="base" type="type1" route="r0" color="1,1,0"/>
        <vehicle id="6" depart="360" departPos="base" type="type1" route="r0" color="1,1,0"/>
        <vehicle id="7" depart="420" departPos="base" type="type1" route="r0" color="1,1,0"/>
        <vehicle id="8" depart="480" departPos="base" type="type1" route="r0" color="1,1,0"/>
        <vehicle id="9" depart="540" departPos="base" type="type1" route="r0" color="1,1,0"/>
        <vehicle id="10" depart="600" departPos="base" type="type1" route="r0" color="1,1,0"/>
        <vehicle id="11" depart="660" departPos="base" type="type1" route="r0" color="1,1,0"/>
        <vehicle id="12" depart="720" departPos="base" type="type1" route="r0" color="1,1,0"/>
        <vehicle id="13" depart="780" departPos="base" type="type1" route="r0" color="1,1,0"/>
        <vehicle id="14" depart="840" departPos="base" type="type1" route="r0" color="1,1,0"/>
        <vehicle id="15" depart="900" departPos="base" type="type1" route="r0" color="1,1,0"/>
        <vehicle id="16" depart="960" departPos="base" type="type1" route="r0" color="1,1,0"/>
        <vehicle id="17" depart="1020" departPos="base" type="type1" route="r0" color="1,1,0"/>
        <vehicle id="18" depart="1080" departPos="base" type="type1" route="r0" color="1,1,0"/>
        <vehicle id="19" depart="1140" departPos="base" type="type1" route="r0" color="1,1,0"/>
        <vehicle id="20" depart="1200" departPos="base" type="type1" route="r0" color="1,1,0"/>
        <vehicle id="21" depart="1260" departPos="base" type="type1" route="r0" color="1,1,0"/>
        <vehicle id="22" depart="1320" departPos="base" type="type1" route="r0" color="1,1,0"/>
        <vehicle id="23" depart="1380" departPos="base" type="type1" route="r0" color="1,1,0"/>
        <vehicle id="24" depart="1440" departPos="base" type="type1" route="r0" color="1,1,0"/>
        <vehicle id="25" depart="1500" departPos="base" type="type1" route="r0" color="1,1,0"/>
        <vehicle id="26" depart="1560" departPos="base" type="type1" route="r0" color="1,1,0"/>
        <vehicle id="27" depart="1620" departPos="base" type="type1" route="r0" color="1,1,0"/>
        <vehicle id="28" depart="1680" departPos="base" type="type1" route="r0" color="1,1,0"/>
        <vehicle id="29" depart="1740" departPos="base" type="type1" route="r0" color="1,1,0"/>
        <vehicle id="30" depart="1800" departPos="base" type="type1" route="r0" color="1,1,0"/>
        <vehicle id="31" depart="1860" departPos="base" type="type1" route="r0" color="1,1,0"/>
        <vehicle id="32" depart="1920" departPos="base" type="type1" route="r0" color="1,1,0"/>
        <vehicle id="33" depart="1980" departPos="base" type="type1" route="r0" color="1,1,0"/>
        <vehicle id="34" depart="2040" departPos="base" type="type1" route="r0" color="1,1,0"/>
        <vehicle id="35" depart="2100" departPos="base" type="type1" route="r0" color="1,1,0"/>
        <vehicle id="36" depart="2160" departPos="base" type="type1" route="r0" color="1,1,0"/>
        <vehicle id="37" depart="2220" departPos="base" type="type1" route="r0" color="1,1,0"/>
        <vehicle id="38" depart="2280" departPos="base" type="type1" route="r0" color="1,1,0"/>
        <vehicle id="39" depart="2340" departPos="base" type="type1" route="r0" color="1,1,0"/>
        <vehicle id="40" depart="2400" departPos="base" type="type1" route="r0" color="1,1,0"/>
        <vehicle id="41" depart="2460" departPos="base" type="type1" route="r0" color="1,1,0"/>
        <vehicle id="42" depart="2520" departPos="base" type="type1" route="r0" color="1,1,0"/>
        <vehicle id="43" depart="2580" departPos="base" type="type1" route="r0" color="1,1,0"/>
        <vehicle id="44" depart="2640" departPos="base" type="type1" route="r0" color="1,1,0"/>
        <vehicle id="45" depart="2700" departPos="base" type="type1" route="r0" color="1,1,0"/>
        <vehicle id="46" depart="2760" departPos="base" type="type1" route="r0" color="1,1,0"/>
        <vehicle id="47" depart="2820" departPos="base" type="type1" route="r0" color="1,1,0"/>
        <vehicle id="48" depart="2880" departPos="base" type="type1" route="r0" color="1,1,0"/>
        <vehicle id="49" depart="2940" departPos="base" type="type1" route="r0" color="1,1,0"/>
        <vehicle id="50" depart="3000" departPos="base" type="type1" route="r0" color="1,1,0"/>
        <vehicle id="51" depart="3060" departPos="base" type="type1" route="r0" color="1,1,0"/>
        <vehicle id="52" depart="3120" departPos="base" type="type1" route="r0" color="1,1,0"/>
        <vehicle id="53" depart="3180" departPos="base" type="type1" route="r0" color="1,1,0"/>
        <vehicle id="54" depart="3240" departPos="base" type="type1" route="r0" color="1,1,0"/>
        <vehicle id="55" depart="3300" departPos="base" type="type1" route="r0" color="1,1,0"/>
        <vehicle id="56" depart="3360" departPos="base" type="type1" route="r0" color="1,1,0"/>
        <vehicle id="57" depart="3420" departPos="base" type="type1" route="r0" color="1,1,0"/>
        <vehicle id="58" depart="3480" departPos="base" type="type1" route="r0" color="1,1,0"/>
        <vehicle id="59" depart="3540" departPos="base" type="type1" route="r0" color="1,1,0"/>
        <vehicle id="60" depart="3600" departPos="base" type="type1" route="r0" color="1,1,0"/>
        <vehicle id="61" depart="3660" departPos="base" type="type1" route="r0" color="1,1,0"/>
        <vehicle id="62" depart="3720" departPos="base" type="type1" route="r0" color="1,1,0"/>
        <vehicle id="63" depart="3780" departPos="base" type="type1" route="r0" color="1,1,0"/>
        <vehicle id="64" depart="3840" departPos="base" type="type1" route="r0" color="1,1,0"/>
        <vehicle id="65" depart="3900" departPos="base" type="type1" route="r0" color="1,1,0"/>
        <vehicle id="66" depart="3960" departPos="base" type="type1" route="r0" color="1,1,0"/>
        <vehicle id="67" depart="4020" departPos="base" type="type1" route="r0" color="1,1,0"/>
        <vehicle id="68" depart="4080" departPos="base" type="type1" route="r0" color="1,1,0"/>
        <vehicle id="69" depart="4140" departPos="base" type="type1" route="r0" color="1,1,0"/>
        <vehicle id="70" depart="4200" departPos="base" type="type1" route="r0" color="1,1,0"/>
        <vehicle id="71" depart="4260" departPos="base" type="type1" route="r0" color="1,1,0"/>
        <vehicle id="72" depart="4320" departPos="base" type="type1" route="r0" color="1,1,0"/>
        <vehicle id="73" depart="4380" departPos="base" type="type1" route="r0" color="1,1,0"/>
        <vehicle id="74" depart="4440" departPos="base" type="type1" route="r0" color="1,1,0"/>
        <vehicle id="75" depart="4500" departPos="base" type="type1" route="r0" color="1,1,0"/>
        <vehicle id="76" depart="4560" departPos="base" type="type1" route="r0" color="1,1,0"/>
        <vehicle id="77" depart="4620" departPos="base" type="type1" route="r0" color="1,1,0"/>
        <vehicle id="78" depart="4680" departPos="base" type="type1" route="r0" color="1,1,0"/>
        <vehicle id="79" depart="4740" departPos="base" type="type1" route="r0" color="1,1,0"/>
        <vehicle id="80" depart="4800" departPos="base" type="type1" route="r0" color="1,1,0"/>
        <vehicle id="81" depart="4860" departPos="base" type="type1" route="r0" color="1,1,0"/>
        <vehicle id="82" depart="4920" departPos="base" type="type1" route="r0" color="1,1,0"/>
        <vehicle id="83" depart="4980" departPos="base" type="type1" route="r0" color="1,1,0"/>
        <vehicle id="84" depart="5040" departPos="base" type="type1" route="r0" color="1,1,0"/>
        <vehicle id="85" depart="5100" departPos="base" type="type1" route="r0" color="1,1,0"/>
        <vehicle id="86" depart="5160" departPos="base" type="type1" route="r0" color="1,1,0"/>
        <vehicle id="87" depart="5220" departPos="base" type="type1" route="r0" color="1,1,0"/>
        <vehicle id="88" depart="5280" departPos="base" type="type1" route="r0" color="1,1,0"/>
        <vehicle id="89" depart="5340" departPos="base" type="type1" route="r0" color="1,1,0"/>
        <vehicle id="90" depart="5400" departPos="base" type="type1" route="r0" color="1,1,0"/>
        <vehicle id="91" depart="5460" departPos="base" type="type1" route="r0" color="1,1,0"/>
        <vehicle id="92" depart="5520" departPos="base" type="type1" route="r0" color="1,1,0"/>
        <vehicle id="93" depart="5580" departPos="base" type="type1" route="r0" color="1,1,0"/>
        <vehicle id="94" depart="5640" departPos="base" type="type1" route="r0" color="1,1,0"/>
        <vehicle id="95" depart="5700" departPos="base" type="type1" route="r0" color="1,1,0"/>
        <vehicle id="96" depart="5760" departPos="base" type="type1" route="r0" color="1,1,0"/>
        <vehicle id="97" depart="5820" departPos="base" type="type1" route="r0" color="1,1,0"/>
        <vehicle id="98" depart="5880" departPos="base" type="type1" route="r0" color="1,1,0"/>
        <vehicle id="99" depart="5940" departPos="base" type="type1" route="r0" color="1,1,0"/>
        <vehicle id="100" depart="6000" departPos="base" type="type1" route="r0" color="1,1,0"/>
        <vehicle id="101" depart="6060" departPos="base" type="type1" route="r0" color="1,1,0"/>
        <vehicle id="102" depart="6120" departPos="base" type="type1" route="r0" color="1,1,0"/>
        <vehicle id="103" depart="6180" departPos="base" type="type1" route="r0" color="1,1,0"/>
        <vehicle id="104" depart="6240" departPos="base" type="type1" route="r0" color="1,1,0"/>
        <vehicle id="105" depart="6300" departPos="base" type="type1" route="r0" color="1,1,0"/>
        <vehicle id="106" depart="6360" departPos="base" type="type1" route="r0" color="1,1,0"/>
        <vehicle id="107" depart="6420" departPos="base" type="type1" route="r0" color="1,1,0"/>
        <vehicle id="108" depart="6480" departPos="base" type="type1" route="r0" color="1,1,0"/>
        <vehicle id="109" depart="6540" departPos="base" type="type1" route="r0" color="1,1,0"/>
        <vehicle id="110" depart="6600" departPos="base" type="type1" route="r0" color="1,1,0"/>
        <vehicle id="111" depart="6660" departPos="base" type="type1" route="r0" color="1,1,0"/>
        <vehicle id="112" depart="6720" departPos="base" type="type1" route="r0" color="1,1,0"/>
        <vehicle id="113" depart="6780" departPos="base" type="type1" route="r0" color="1,1,0"/>
        <vehicle id="114" depart="6840" departPos="base" type="type1" route="r0" color="1,1,0"/>
        <vehicle id="115" depart="6900" departPos="base" type="type1" route="r0" color="1,1,0"/>
        <vehicle id="116" depart="6960" departPos="base" type="type1" route="r0" color="1,1,0"/>
        <vehicle id="117" depart="7020" departPos="base" type="type1" route="r0" color="1,1,0"/>
        <vehicle id="118" depart="7080" departPos="base" type="type1" route="r0" color="1,1,0"/>
        <vehicle id="119" depart="7140" departPos="base" type="type1" route="r0" color="1,1,0"/>
 </routes>