<nodes>
  <node id="bottom" x="0.00" y="-1591.55" type="priority"/>
  <node id="right" x="1591.55" y="0.00" type="priority"/>
  <node id="top" x="0.00" y="1591.55" type="priority"/>
  <node id="left" x="-1591.55" y="0.00" type="priority"/>
</nodes>
