<?xml version="1.0" encoding="UTF-8"?>

<!-- generated on 04/07/21 15:54:23 by Eclipse SUMO netconvert Version 1.6.0
<configuration xmlns:xsi="http://www.w3.org/2001/XMLSchema-instance" xsi:noNamespaceSchemaLocation="http://sumo.dlr.de/xsd/netconvertConfiguration.xsd">

    <input>
        <node-files value="G:\mcgill\sumo-ring\data\demo\sim.nod.xml"/>
        <edge-files value="G:\mcgill\sumo-ring\data\demo\sim.edg.xml"/>
        <connection-files value="G:\mcgill\sumo-ring\data\demo\sim.con.xml"/>
        <type-files value="G:\mcgill\sumo-ring\data\demo\sim.typ.xml"/>
    </input>

    <output>
        <output-file value="G:\mcgill\sumo-ring\data\demo\sim.net.xml"/>
    </output>

    <report>
        <aggregate-warnings value="5"/>
    </report>

</configuration>
-->

<net version="1.6" junctionCornerDetail="5" limitTurnSpeed="5.50" xmlns:xsi="http://www.w3.org/2001/XMLSchema-instance" xsi:noNamespaceSchemaLocation="http://sumo.dlr.de/xsd/net_file.xsd">

    <location netOffset="159.15,159.15" convBoundary="0.00,0.00,318.31,318.31" origBoundary="-159.15,-159.15,159.15,159.15" projParameter="!"/>

    <type id="a" priority="1" numLanes="1" speed="30.00"/>
    <type id="b" priority="1" numLanes="1" speed="30.00"/>

    <edge id=":bottom_0" function="internal">
        <lane id=":bottom_0_0" index="0" speed="30.00" length="0.10" shape="159.12,-1.60 159.19,-1.60"/>
    </edge>
    <edge id=":left_0" function="internal">
        <lane id=":left_0_0" index="0" speed="30.00" length="0.10" shape="-1.60,159.19 -1.60,159.12"/>
    </edge>
    <edge id=":right_0" function="internal">
        <lane id=":right_0_0" index="0" speed="30.00" length="0.10" shape="319.91,159.12 319.91,159.19"/>
    </edge>
    <edge id=":top_0" function="internal">
        <lane id=":top_0_0" index="0" speed="30.00" length="0.10" shape="159.19,319.91 159.12,319.91"/>
    </edge>

    <edge id="bottom" from="bottom" to="right" priority="1" type="a" shape="159.15,0.00 165.56,0.13 171.96,0.52 178.34,1.16 184.69,2.06 190.99,3.22 197.24,4.62 203.43,6.28 209.55,8.19 215.59,10.34 221.54,12.74 227.38,15.37 233.12,18.23 238.73,21.32 244.22,24.64 249.57,28.17 254.77,31.92 259.81,35.87 264.69,40.03 269.41,44.37 273.94,48.90 278.28,53.62 282.44,58.50 286.39,63.54 290.14,68.74 293.67,74.09 296.99,79.58 300.08,85.19 302.94,90.93 305.57,96.77 307.97,102.72 310.12,108.76 312.03,114.88 313.69,121.07 315.09,127.32 316.25,133.62 317.15,139.97 317.79,146.35 318.18,152.75 318.31,159.15">
        <lane id="bottom_0" index="0" speed="30.00" length="252.43" shape="159.19,-1.60 165.63,-1.47 172.09,-1.08 178.53,-0.43 184.94,0.48 191.31,1.65 197.63,3.07 203.88,4.75 210.06,6.67 216.16,8.85 222.17,11.26 228.07,13.92 233.86,16.81 239.53,19.94 245.07,23.29 250.47,26.86 255.73,30.64 260.82,34.63 265.76,38.83 270.51,43.22 275.09,47.80 279.48,52.55 283.68,57.49 287.67,62.58 291.45,67.84 295.02,73.24 298.37,78.78 301.50,84.45 304.39,90.24 307.05,96.14 309.46,102.15 311.64,108.25 313.56,114.43 315.24,120.68 316.66,127.00 317.83,133.37 318.74,139.78 319.39,146.22 319.78,152.68 319.91,159.12"/>
    </edge>
    <edge id="left" from="left" to="bottom" priority="1" type="a" shape="0.00,159.15 0.13,152.75 0.52,146.35 1.16,139.97 2.06,133.62 3.22,127.32 4.62,121.07 6.28,114.88 8.19,108.76 10.34,102.72 12.74,96.77 15.37,90.93 18.23,85.19 21.32,79.58 24.64,74.09 28.17,68.74 31.92,63.54 35.87,58.50 40.03,53.62 44.37,48.90 48.90,44.37 53.62,40.03 58.50,35.87 63.54,31.92 68.74,28.17 74.09,24.64 79.58,21.32 85.19,18.23 90.93,15.37 96.77,12.74 102.72,10.34 108.76,8.19 114.88,6.28 121.07,4.62 127.32,3.22 133.62,2.06 139.97,1.16 146.35,0.52 152.75,0.13 159.15,0.00">
        <lane id="left_0" index="0" speed="30.00" length="252.43" shape="-1.60,159.12 -1.47,152.68 -1.08,146.22 -0.43,139.78 0.48,133.37 1.65,127.00 3.07,120.68 4.75,114.43 6.67,108.25 8.85,102.15 11.26,96.14 13.92,90.24 16.81,84.45 19.94,78.78 23.29,73.24 26.86,67.84 30.64,62.58 34.63,57.49 38.83,52.55 43.22,47.80 47.80,43.22 52.55,38.83 57.49,34.63 62.58,30.64 67.84,26.86 73.24,23.29 78.78,19.94 84.45,16.81 90.24,13.92 96.14,11.26 102.15,8.85 108.25,6.67 114.43,4.75 120.68,3.07 127.00,1.65 133.37,0.48 139.78,-0.43 146.22,-1.08 152.68,-1.47 159.12,-1.60"/>
    </edge>
    <edge id="right" from="right" to="top" priority="1" type="a" shape="318.31,159.15 318.18,165.56 317.79,171.96 317.15,178.34 316.25,184.69 315.09,190.99 313.69,197.24 312.03,203.43 310.12,209.55 307.97,215.59 305.57,221.54 302.94,227.38 300.08,233.12 296.99,238.73 293.67,244.22 290.14,249.57 286.39,254.77 282.44,259.81 278.28,264.69 273.94,269.41 269.41,273.94 264.69,278.28 259.81,282.44 254.77,286.39 249.57,290.14 244.22,293.67 238.73,296.99 233.12,300.08 227.38,302.94 221.54,305.57 215.59,307.97 209.55,310.12 203.43,312.03 197.24,313.69 190.99,315.09 184.69,316.25 178.34,317.15 171.96,317.79 165.56,318.18 159.15,318.31">
        <lane id="right_0" index="0" speed="30.00" length="252.43" shape="319.91,159.19 319.78,165.63 319.39,172.09 318.74,178.53 317.83,184.94 316.66,191.31 315.24,197.63 313.56,203.88 311.64,210.06 309.46,216.16 307.05,222.17 304.39,228.07 301.50,233.86 298.37,239.53 295.02,245.07 291.45,250.47 287.67,255.73 283.68,260.82 279.48,265.76 275.09,270.51 270.51,275.09 265.76,279.48 260.82,283.68 255.73,287.67 250.47,291.45 245.07,295.02 239.53,298.37 233.86,301.50 228.07,304.39 222.17,307.05 216.16,309.46 210.06,311.64 203.88,313.56 197.63,315.24 191.31,316.66 184.94,317.83 178.53,318.74 172.09,319.39 165.63,319.78 159.19,319.91"/>
    </edge>
    <edge id="top" from="top" to="left" priority="1" type="a" shape="159.15,318.31 152.75,318.18 146.35,317.79 139.97,317.15 133.62,316.25 127.32,315.09 121.07,313.69 114.88,312.03 108.76,310.12 102.72,307.97 96.77,305.57 90.93,302.94 85.19,300.08 79.58,296.99 74.09,293.67 68.74,290.14 63.54,286.39 58.50,282.44 53.62,278.28 48.90,273.94 44.37,269.41 40.03,264.69 35.87,259.81 31.92,254.77 28.17,249.57 24.64,244.22 21.32,238.73 18.23,233.12 15.37,227.38 12.74,221.54 10.34,215.59 8.19,209.55 6.28,203.43 4.62,197.24 3.22,190.99 2.06,184.69 1.16,178.34 0.52,171.96 0.13,165.56 0.00,159.15">
        <lane id="top_0" index="0" speed="30.00" length="252.43" shape="159.12,319.91 152.68,319.78 146.22,319.39 139.78,318.74 133.37,317.83 127.00,316.66 120.68,315.24 114.43,313.56 108.25,311.64 102.15,309.46 96.14,307.05 90.24,304.39 84.45,301.50 78.78,298.37 73.24,295.02 67.84,291.45 62.58,287.67 57.49,283.68 52.55,279.48 47.80,275.09 43.22,270.51 38.83,265.76 34.63,260.82 30.64,255.73 26.86,250.47 23.29,245.07 19.94,239.53 16.81,233.86 13.92,228.07 11.26,222.17 8.85,216.16 6.67,210.06 4.75,203.88 3.07,197.63 1.65,191.31 0.48,184.94 -0.43,178.53 -1.08,172.09 -1.47,165.63 -1.60,159.19"/>
    </edge>

    <junction id="bottom" type="priority" x="159.15" y="0.00" incLanes="left_0" intLanes=":bottom_0_0" shape="159.23,0.00 159.30,-3.20 159.01,-3.20 159.08,0.00">
        <request index="0" response="0" foes="0" cont="0"/>
    </junction>
    <junction id="left" type="priority" x="0.00" y="159.15" incLanes="top_0" intLanes=":left_0_0" shape="-3.20,159.30 0.00,159.23 0.00,159.08 -3.20,159.01">
        <request index="0" response="0" foes="0" cont="0"/>
    </junction>
    <junction id="right" type="priority" x="318.30" y="159.15" incLanes="bottom_0" intLanes=":right_0_0" shape="321.51,159.01 318.31,159.08 318.31,159.23 321.51,159.30">
        <request index="0" response="0" foes="0" cont="0"/>
    </junction>
    <junction id="top" type="priority" x="159.15" y="318.30" incLanes="right_0" intLanes=":top_0_0" shape="159.30,321.51 159.23,318.31 159.08,318.31 159.01,321.51">
        <request index="0" response="0" foes="0" cont="0"/>
    </junction>

    <connection from="bottom" to="right" fromLane="0" toLane="0" via=":right_0_0" dir="s" state="M"/>
    <connection from="left" to="bottom" fromLane="0" toLane="0" via=":bottom_0_0" dir="s" state="M"/>
    <connection from="right" to="top" fromLane="0" toLane="0" via=":top_0_0" dir="s" state="M"/>
    <connection from="top" to="left" fromLane="0" toLane="0" via=":left_0_0" dir="s" state="M"/>

    <connection from=":bottom_0" to="bottom" fromLane="0" toLane="0" dir="s" state="M"/>
    <connection from=":left_0" to="left" fromLane="0" toLane="0" dir="s" state="M"/>
    <connection from=":right_0" to="right" fromLane="0" toLane="0" dir="s" state="M"/>
    <connection from=":top_0" to="top" fromLane="0" toLane="0" dir="s" state="M"/>

</net>
