<nodes>
  <node id="bottom" x="0.00" y="-159.15" type="priority"/>
  <node id="right" x="159.15" y="0.00" type="priority"/>
  <node id="top" x="0.00" y="159.15" type="priority"/>
  <node id="left" x="-159.15" y="0.00" type="priority"/>
</nodes>
