<edges>
  <edge id="bottom" from="bottom" to="right" type="a" shape="0.00000000000000974542958129844,-159.15494309189535 6.408523406655649,-159.0258681420441 12.806652164910615,-158.63885265253097 19.18400848652192,-157.9945243638953 25.530248276214873,-157.09392837897738 31.83507790984324,-155.93852546775815 38.0882709306854,-154.53018969798475 44.279684636794485,-152.87120539542582 50.399276532498014,-150.96426343868686 56.43712061736272,-148.81245689459502 62.3834234862034,-146.4192760012337 68.22854021402195,-143.7886025067635 73.96299000011109,-140.92470337321245 79.57747154594766,-137.83222385544804 85.06287814193304,-134.51617996655682 90.41031243850905,-130.98195034185292 95.6111008776919,-127.2352675147118 100.65680776161464,-123.28220861838014 105.53924893526013,-119.1291855288436 110.25050506119028,-114.78293446474045 114.78293446474044,-110.25050506119028 119.1291855288436,-105.53924893526013 123.28220861838014,-100.65680776161464 127.23526751471177,-95.6111008776919 130.98195034185292,-90.41031243850905 134.51617996655682,-85.06287814193303 137.832223855448,-79.57747154594767 140.92470337321245,-73.96299000011108 143.7886025067635,-68.22854021402193 146.4192760012337,-62.38342348620339 148.81245689459502,-56.43712061736275 150.96426343868683,-50.39927653249804 152.87120539542582,-44.27968463679448 154.53018969798475,-38.08827093068539 155.93852546775815,-31.835077909843232 157.09392837897738,-25.530248276214895 157.9945243638953,-19.184008486521947 158.63885265253097,-12.806652164910606 159.0258681420441,-6.408523406655639 159.15494309189535,0"/>
  <edge id="right" from="right" to="top" type="a" shape="159.15494309189535,0 159.0258681420441,6.4085234066556325 158.638852652531,12.806652164910593 157.9945243638953,19.184008486521925 157.09392837897738,25.53024827621487 155.93852546775815,31.835077909843232 154.53018969798475,38.08827093068538 152.87120539542585,44.279684636794464 150.96426343868683,50.39927653249802 148.81245689459502,56.43712061736272 146.4192760012337,62.38342348620339 143.7886025067635,68.22854021402193 140.92470337321245,73.96299000011106 137.83222385544804,79.57747154594766 134.51617996655682,85.06287814193301 130.98195034185292,90.41031243850902 127.2352675147118,95.61110087769188 123.28220861838014,100.65680776161464 119.12918552884362,105.5392489352601 114.78293446474045,110.25050506119028 110.2505050611903,114.78293446474044 105.53924893526015,119.1291855288436 100.65680776161464,123.28220861838014 95.61110087769191,127.23526751471177 90.41031243850907,130.98195034185292 85.06287814193304,134.51617996655682 79.57747154594769,137.832223855448 73.96299000011109,140.92470337321245 68.22854021402195,143.7886025067635 62.3834234862034,146.4192760012337 56.43712061736276,148.812456894595 50.39927653249805,150.96426343868683 44.279684636794485,152.87120539542582 38.0882709306854,154.53018969798475 31.83507790984324,155.93852546775815 25.53024827621491,157.09392837897738 19.184008486521954,157.9945243638953 12.806652164910615,158.63885265253097 6.408523406655649,159.0258681420441 0.00000000000000974542958129844,159.15494309189535"/>
  <edge id="top" from="top" to="left" type="a" shape="0.00000000000000974542958129844,159.15494309189535 -6.40852340665563,159.0258681420441 -12.806652164910595,158.63885265253097 -19.1840084865219,157.9945243638953 -25.530248276214852,157.09392837897738 -31.83507790984322,155.93852546775815 -38.08827093068538,154.53018969798475 -44.279684636794464,152.87120539542585 -50.39927653249799,150.96426343868686 -56.43712061736271,148.81245689459502 -62.38342348620338,146.4192760012337 -68.22854021402189,143.78860250676354 -73.96299000011106,140.92470337321245 -79.57747154594765,137.83222385544804 -85.06287814193303,134.51617996655682 -90.41031243850902,130.98195034185292 -95.61110087769184,127.23526751471182 -100.65680776161463,123.28220861838014 -105.53924893526009,119.12918552884364 -110.25050506119028,114.78293446474045 -114.78293446474044,110.2505050611903 -119.12918552884356,105.53924893526016 -123.28220861838011,100.65680776161464 -127.23526751471175,95.61110087769192 -130.98195034185292,90.41031243850905 -134.5161799665568,85.06287814193304 -137.832223855448,79.57747154594773 -140.92470337321242,73.96299000011109 -143.7886025067635,68.22854021402192 -146.4192760012337,62.383423486203405 -148.812456894595,56.43712061736277 -150.96426343868683,50.39927653249809 -152.87120539542582,44.27968463679449 -154.53018969798475,38.088270930685376 -155.93852546775815,31.83507790984325 -157.09392837897738,25.530248276214916 -157.9945243638953,19.184008486521996 -158.63885265253097,12.806652164910627 -159.0258681420441,6.408523406655624 -159.15494309189535,0.00000000000001949085916259688"/>
  <edge id="left" from="left" to="bottom" type="a" shape="-159.15494309189535,0.00000000000001949085916259688 -159.0258681420441,-6.4085234066555845 -158.638852652531,-12.806652164910586 -157.9945243638953,-19.18400848652189 -157.09392837897738,-25.530248276214877 -155.93852546775815,-31.835077909843214 -154.53018969798478,-38.08827093068533 -152.87120539542585,-44.27968463679446 -150.96426343868686,-50.399276532497986 -148.81245689459502,-56.43712061736274 -146.4192760012337,-62.38342348620337 -143.78860250676354,-68.22854021402189 -140.92470337321245,-73.96299000011106 -137.83222385544806,-79.57747154594763 -134.51617996655682,-85.06287814193301 -130.98195034185295,-90.41031243850901 -127.23526751471182,-95.61110087769184 -123.28220861838015,-100.65680776161463 -119.12918552884364,-105.53924893526009 -114.78293446474045,-110.25050506119028 -110.25050506119032,-114.78293446474042 -105.53924893526018,-119.12918552884356 -100.65680776161471,-123.28220861838007 -95.61110087769188,-127.2352675147118 -90.41031243850907,-130.98195034185292 -85.06287814193306,-134.5161799665568 -79.57747154594774,-137.832223855448 -73.96299000011103,-140.92470337321248 -68.22854021402193,-143.7886025067635 -62.38342348620341,-146.4192760012337 -56.43712061736278,-148.812456894595 -50.3992765324981,-150.96426343868683 -44.27968463679457,-152.87120539542582 -38.08827093068538,-154.53018969798475 -31.835077909843257,-155.93852546775815 -25.530248276214927,-157.09392837897738 -19.18400848652201,-157.9945243638953 -12.806652164910565,-158.638852652531 -6.408523406655633,-159.0258681420441 -0.00000000000002923628874389532,-159.15494309189535"/>
</edges>
