<?xml version="1.0" encoding="UTF-8"?>

<!-- generated on 04/07/21 21:41:00 by Eclipse SUMO netconvert Version 1.8.0
<configuration xmlns:xsi="http://www.w3.org/2001/XMLSchema-instance" xsi:noNamespaceSchemaLocation="http://sumo.dlr.de/xsd/netconvertConfiguration.xsd">

    <input>
        <node-files value="D:\GitHub\sumo-ring\data\demo\sim.nod.xml"/>
        <edge-files value="D:\GitHub\sumo-ring\data\demo\sim.edg.xml"/>
        <connection-files value="D:\GitHub\sumo-ring\data\demo\sim.con.xml"/>
        <type-files value="D:\GitHub\sumo-ring\data\demo\sim.typ.xml"/>
    </input>

    <output>
        <output-file value="D:\GitHub\sumo-ring\data\demo\sim.net.xml"/>
    </output>

    <report>
        <aggregate-warnings value="5"/>
    </report>

</configuration>
-->

<net version="1.6" junctionCornerDetail="5" limitTurnSpeed="5.50" xmlns:xsi="http://www.w3.org/2001/XMLSchema-instance" xsi:noNamespaceSchemaLocation="http://sumo.dlr.de/xsd/net_file.xsd">

    <location netOffset="1591.55,1591.55" convBoundary="0.00,0.00,3183.10,3183.10" origBoundary="-1591.55,-1591.55,1591.55,1591.55" projParameter="!"/>

    <type id="a" priority="1" numLanes="1" speed="60.00"/>
    <type id="b" priority="1" numLanes="1" speed="60.00"/>

    <edge id=":bottom_0" function="internal">
        <lane id=":bottom_0_0" index="0" speed="60.00" length="0.10" shape="1591.52,-1.60 1591.58,-1.60"/>
    </edge>
    <edge id=":left_0" function="internal">
        <lane id=":left_0_0" index="0" speed="60.00" length="0.10" shape="-1.60,1591.58 -1.60,1591.52"/>
    </edge>
    <edge id=":right_0" function="internal">
        <lane id=":right_0_0" index="0" speed="60.00" length="0.10" shape="3184.70,1591.52 3184.70,1591.58"/>
    </edge>
    <edge id=":top_0" function="internal">
        <lane id=":top_0_0" index="0" speed="60.00" length="0.10" shape="1591.58,3184.70 1591.52,3184.70"/>
    </edge>

    <edge id="bottom" from="bottom" to="right" priority="1" type="a" shape="1591.55,0.00 1655.64,1.29 1719.62,5.16 1783.39,11.60 1846.85,20.61 1909.90,32.16 1972.43,46.25 2034.35,62.84 2095.54,81.91 2155.92,103.43 2215.38,127.36 2273.84,153.66 2331.18,182.30 2387.32,213.23 2442.18,246.39 2495.65,281.73 2547.66,319.20 2598.12,358.73 2646.94,400.26 2694.06,443.72 2739.38,489.04 2782.84,536.16 2824.37,584.98 2863.90,635.44 2901.37,687.45 2936.71,740.92 2969.87,795.78 3000.80,851.92 3029.44,909.26 3055.74,967.72 3079.67,1027.18 3101.19,1087.56 3120.26,1148.75 3136.85,1210.67 3150.94,1273.20 3162.49,1336.25 3171.50,1399.71 3177.94,1463.48 3181.81,1527.46 3183.10,1591.55">
        <lane id="bottom_0" index="0" speed="60.00" length="2502.28" shape="1591.58,-1.60 1655.70,-0.31 1719.75,3.57 1783.58,10.02 1847.11,19.03 1910.22,30.60 1972.82,44.69 2034.79,61.30 2096.05,80.39 2156.49,101.93 2216.01,125.88 2274.52,152.22 2331.92,180.89 2388.12,211.84 2443.03,245.04 2496.56,280.41 2548.62,317.92 2599.13,357.49 2648.00,399.06 2695.16,442.57 2740.53,487.94 2784.04,535.10 2825.61,583.97 2865.18,634.48 2902.69,686.54 2938.06,740.07 2971.26,794.98 3002.21,851.18 3030.88,908.58 3057.22,967.09 3081.17,1026.61 3102.71,1087.05 3121.80,1148.31 3138.41,1210.28 3152.50,1272.88 3164.07,1335.99 3173.08,1399.52 3179.53,1463.35 3183.41,1527.40 3184.70,1591.52"/>
    </edge>
    <edge id="left" from="left" to="bottom" priority="1" type="a" shape="0.00,1591.55 1.29,1527.46 5.16,1463.48 11.60,1399.71 20.61,1336.25 32.16,1273.20 46.25,1210.67 62.84,1148.75 81.91,1087.56 103.43,1027.18 127.36,967.72 153.66,909.26 182.30,851.92 213.23,795.78 246.39,740.92 281.73,687.45 319.20,635.44 358.73,584.98 400.26,536.16 443.72,489.04 489.04,443.72 536.16,400.26 584.98,358.73 635.44,319.20 687.45,281.73 740.92,246.39 795.78,213.23 851.92,182.30 909.26,153.66 967.72,127.36 1027.18,103.43 1087.56,81.91 1148.75,62.84 1210.67,46.25 1273.20,32.16 1336.25,20.61 1399.71,11.60 1463.48,5.16 1527.46,1.29 1591.55,0.00">
        <lane id="left_0" index="0" speed="60.00" length="2502.28" shape="-1.60,1591.52 -0.31,1527.40 3.57,1463.35 10.02,1399.52 19.03,1335.99 30.60,1272.88 44.69,1210.28 61.30,1148.31 80.39,1087.05 101.93,1026.61 125.88,967.09 152.22,908.58 180.89,851.18 211.84,794.98 245.04,740.07 280.41,686.54 317.92,634.48 357.49,583.97 399.06,535.10 442.57,487.94 487.94,442.57 535.10,399.06 583.97,357.49 634.48,317.92 686.54,280.41 740.07,245.04 794.98,211.84 851.18,180.89 908.58,152.22 967.09,125.88 1026.61,101.93 1087.05,80.39 1148.31,61.30 1210.28,44.69 1272.88,30.60 1335.99,19.03 1399.52,10.02 1463.35,3.57 1527.40,-0.31 1591.52,-1.60"/>
    </edge>
    <edge id="right" from="right" to="top" priority="1" type="a" shape="3183.10,1591.55 3181.81,1655.64 3177.94,1719.62 3171.50,1783.39 3162.49,1846.85 3150.94,1909.90 3136.85,1972.43 3120.26,2034.35 3101.19,2095.54 3079.67,2155.92 3055.74,2215.38 3029.44,2273.84 3000.80,2331.18 2969.87,2387.32 2936.71,2442.18 2901.37,2495.65 2863.90,2547.66 2824.37,2598.12 2782.84,2646.94 2739.38,2694.06 2694.06,2739.38 2646.94,2782.84 2598.12,2824.37 2547.66,2863.90 2495.65,2901.37 2442.18,2936.71 2387.32,2969.87 2331.18,3000.80 2273.84,3029.44 2215.38,3055.74 2155.92,3079.67 2095.54,3101.19 2034.35,3120.26 1972.43,3136.85 1909.90,3150.94 1846.85,3162.49 1783.39,3171.50 1719.62,3177.94 1655.64,3181.81 1591.55,3183.10">
        <lane id="right_0" index="0" speed="60.00" length="2502.28" shape="3184.70,1591.58 3183.41,1655.70 3179.53,1719.75 3173.08,1783.58 3164.07,1847.11 3152.50,1910.22 3138.41,1972.82 3121.80,2034.79 3102.71,2096.05 3081.17,2156.49 3057.22,2216.01 3030.88,2274.52 3002.21,2331.92 2971.26,2388.12 2938.06,2443.03 2902.69,2496.56 2865.18,2548.62 2825.61,2599.13 2784.04,2648.00 2740.53,2695.16 2695.16,2740.53 2648.00,2784.04 2599.13,2825.61 2548.62,2865.18 2496.56,2902.69 2443.03,2938.06 2388.12,2971.26 2331.92,3002.21 2274.52,3030.88 2216.01,3057.22 2156.49,3081.17 2096.05,3102.71 2034.79,3121.80 1972.82,3138.41 1910.22,3152.50 1847.11,3164.07 1783.58,3173.08 1719.75,3179.53 1655.70,3183.41 1591.58,3184.70"/>
    </edge>
    <edge id="top" from="top" to="left" priority="1" type="a" shape="1591.55,3183.10 1527.46,3181.81 1463.48,3177.94 1399.71,3171.50 1336.25,3162.49 1273.20,3150.94 1210.67,3136.85 1148.75,3120.26 1087.56,3101.19 1027.18,3079.67 967.72,3055.74 909.26,3029.44 851.92,3000.80 795.78,2969.87 740.92,2936.71 687.45,2901.37 635.44,2863.90 584.98,2824.37 536.16,2782.84 489.04,2739.38 443.72,2694.06 400.26,2646.94 358.73,2598.12 319.20,2547.66 281.73,2495.65 246.39,2442.18 213.23,2387.32 182.30,2331.18 153.66,2273.84 127.36,2215.38 103.43,2155.92 81.91,2095.54 62.84,2034.35 46.25,1972.43 32.16,1909.90 20.61,1846.85 11.60,1783.39 5.16,1719.62 1.29,1655.64 0.00,1591.55">
        <lane id="top_0" index="0" speed="60.00" length="2502.28" shape="1591.52,3184.70 1527.40,3183.41 1463.35,3179.53 1399.52,3173.08 1335.99,3164.07 1272.88,3152.50 1210.28,3138.41 1148.31,3121.80 1087.05,3102.71 1026.61,3081.17 967.09,3057.22 908.58,3030.88 851.18,3002.21 794.98,2971.26 740.07,2938.06 686.54,2902.69 634.48,2865.18 583.97,2825.61 535.10,2784.04 487.94,2740.53 442.57,2695.16 399.06,2648.00 357.49,2599.13 317.92,2548.62 280.41,2496.56 245.04,2443.03 211.84,2388.12 180.89,2331.92 152.22,2274.52 125.88,2216.01 101.93,2156.49 80.39,2096.05 61.30,2034.79 44.69,1972.82 30.60,1910.22 19.03,1847.11 10.02,1783.58 3.57,1719.75 -0.31,1655.70 -1.60,1591.58"/>
    </edge>

    <junction id="bottom" type="priority" x="1591.55" y="0.00" incLanes="left_0" intLanes=":bottom_0_0" shape="1591.63,0.00 1591.69,-3.20 1591.41,-3.20 1591.47,0.00">
        <request index="0" response="0" foes="0" cont="0"/>
    </junction>
    <junction id="left" type="priority" x="0.00" y="1591.55" incLanes="top_0" intLanes=":left_0_0" shape="-3.20,1591.69 0.00,1591.63 0.00,1591.47 -3.20,1591.41">
        <request index="0" response="0" foes="0" cont="0"/>
    </junction>
    <junction id="right" type="priority" x="3183.10" y="1591.55" incLanes="bottom_0" intLanes=":right_0_0" shape="3186.30,1591.41 3183.10,1591.47 3183.10,1591.63 3186.30,1591.69">
        <request index="0" response="0" foes="0" cont="0"/>
    </junction>
    <junction id="top" type="priority" x="1591.55" y="3183.10" incLanes="right_0" intLanes=":top_0_0" shape="1591.69,3186.30 1591.63,3183.10 1591.47,3183.10 1591.41,3186.30">
        <request index="0" response="0" foes="0" cont="0"/>
    </junction>

    <connection from="bottom" to="right" fromLane="0" toLane="0" via=":right_0_0" dir="s" state="M"/>
    <connection from="left" to="bottom" fromLane="0" toLane="0" via=":bottom_0_0" dir="s" state="M"/>
    <connection from="right" to="top" fromLane="0" toLane="0" via=":top_0_0" dir="s" state="M"/>
    <connection from="top" to="left" fromLane="0" toLane="0" via=":left_0_0" dir="s" state="M"/>

    <connection from=":bottom_0" to="bottom" fromLane="0" toLane="0" dir="s" state="M"/>
    <connection from=":left_0" to="left" fromLane="0" toLane="0" dir="s" state="M"/>
    <connection from=":right_0" to="right" fromLane="0" toLane="0" dir="s" state="M"/>
    <connection from=":top_0" to="top" fromLane="0" toLane="0" dir="s" state="M"/>

</net>
