<edges>
  <edge id="bottom" from="bottom" to="right" type="a" shape="0.00000000000009745429581298439,-1591.5494309189535 64.0852340665565,-1590.2586814204408 128.06652164910616,-1586.3885265253098 191.84008486521918,-1579.945243638953 255.3024827621487,-1570.9392837897738 318.3507790984324,-1559.3852546775815 380.882709306854,-1545.3018969798475 442.79684636794485,-1528.7120539542584 503.9927653249801,-1509.6426343868686 564.3712061736272,-1488.1245689459502 623.834234862034,-1464.1927600123372 682.2854021402195,-1437.886025067635 739.6299000011109,-1409.2470337321245 795.7747154594765,-1378.3222385544802 850.6287814193304,-1345.161799665568 904.1031243850905,-1309.8195034185292 956.111008776919,-1272.352675147118 1006.5680776161465,-1232.8220861838013 1055.3924893526012,-1191.291855288436 1102.5050506119028,-1147.8293446474045 1147.8293446474045,-1102.5050506119028 1191.291855288436,-1055.3924893526012 1232.8220861838013,-1006.5680776161465 1272.3526751471177,-956.111008776919 1309.8195034185292,-904.1031243850905 1345.161799665568,-850.6287814193303 1378.3222385544802,-795.7747154594767 1409.2470337321245,-739.6299000011107 1437.8860250676353,-682.2854021402194 1464.1927600123372,-623.8342348620339 1488.1245689459502,-564.3712061736276 1509.6426343868684,-503.9927653249804 1528.7120539542584,-442.79684636794474 1545.3018969798475,-380.8827093068539 1559.3852546775815,-318.3507790984323 1570.9392837897738,-255.30248276214894 1579.945243638953,-191.84008486521944 1586.3885265253098,-128.06652164910605 1590.2586814204408,-64.0852340665564 1591.5494309189535,0"/>
  <edge id="right" from="right" to="top" type="a" shape="1591.5494309189535,0 1590.2586814204408,64.08523406655632 1586.38852652531,128.06652164910594 1579.945243638953,191.84008486521924 1570.9392837897738,255.30248276214868 1559.3852546775815,318.3507790984323 1545.3018969798475,380.8827093068538 1528.7120539542584,442.7968463679447 1509.6426343868684,503.9927653249802 1488.1245689459502,564.3712061736272 1464.1927600123372,623.8342348620339 1437.8860250676353,682.2854021402194 1409.2470337321245,739.6299000011106 1378.3222385544802,795.7747154594766 1345.1617996655682,850.62878141933 1309.8195034185292,904.1031243850903 1272.352675147118,956.1110087769188 1232.8220861838013,1006.5680776161465 1191.2918552884362,1055.3924893526012 1147.8293446474045,1102.5050506119028 1102.505050611903,1147.8293446474045 1055.3924893526014,1191.291855288436 1006.5680776161465,1232.8220861838013 956.1110087769191,1272.3526751471177 904.1031243850906,1309.8195034185292 850.6287814193304,1345.161799665568 795.774715459477,1378.3222385544802 739.6299000011109,1409.2470337321245 682.2854021402195,1437.886025067635 623.834234862034,1464.1927600123372 564.3712061736276,1488.12456894595 503.9927653249805,1509.6426343868684 442.79684636794485,1528.7120539542584 380.882709306854,1545.3018969798475 318.3507790984324,1559.3852546775815 255.30248276214908,1570.9392837897738 191.84008486521955,1579.945243638953 128.06652164910616,1586.3885265253098 64.0852340665565,1590.2586814204408 0.00000000000009745429581298439,1591.5494309189535"/>
  <edge id="top" from="top" to="left" type="a" shape="0.00000000000009745429581298439,1591.5494309189535 -64.0852340665563,1590.2586814204408 -128.06652164910597,1586.3885265253098 -191.84008486521898,1579.945243638953 -255.30248276214851,1570.9392837897738 -318.3507790984322,1559.3852546775815 -380.88270930685377,1545.3018969798475 -442.7968463679447,1528.7120539542584 -503.9927653249799,1509.6426343868686 -564.3712061736271,1488.1245689459502 -623.8342348620338,1464.1927600123372 -682.2854021402189,1437.8860250676353 -739.6299000011106,1409.2470337321245 -795.7747154594764,1378.3222385544802 -850.6287814193303,1345.161799665568 -904.1031243850903,1309.8195034185292 -956.1110087769184,1272.3526751471181 -1006.5680776161463,1232.8220861838013 -1055.392489352601,1191.2918552884364 -1102.5050506119028,1147.8293446474045 -1147.8293446474045,1102.505050611903 -1191.2918552884357,1055.3924893526016 -1232.8220861838013,1006.5680776161465 -1272.3526751471175,956.1110087769193 -1309.8195034185292,904.1031243850905 -1345.161799665568,850.6287814193304 -1378.32223855448,795.7747154594773 -1409.2470337321242,739.629900001111 -1437.8860250676353,682.2854021402192 -1464.1927600123372,623.834234862034 -1488.12456894595,564.3712061736277 -1509.6426343868682,503.9927653249809 -1528.7120539542584,442.7968463679449 -1545.3018969798475,380.88270930685377 -1559.3852546775815,318.3507790984325 -1570.9392837897738,255.30248276214917 -1579.945243638953,191.84008486521998 -1586.3885265253098,128.06652164910625 -1590.2586814204408,64.08523406655624 -1591.5494309189535,0.00000000000019490859162596878"/>
  <edge id="left" from="left" to="bottom" type="a" shape="-1591.5494309189535,0.00000000000019490859162596878 -1590.258681420441,-64.08523406655586 -1586.38852652531,-128.06652164910585 -1579.945243638953,-191.8400848652189 -1570.9392837897738,-255.30248276214877 -1559.3852546775815,-318.35077909843216 -1545.3018969798477,-380.88270930685337 -1528.7120539542584,-442.79684636794457 -1509.6426343868686,-503.99276532497987 -1488.1245689459502,-564.3712061736273 -1464.1927600123372,-623.8342348620337 -1437.8860250676353,-682.2854021402188 -1409.2470337321245,-739.6299000011106 -1378.3222385544805,-795.7747154594763 -1345.1617996655682,-850.62878141933 -1309.8195034185294,-904.1031243850902 -1272.3526751471181,-956.1110087769184 -1232.8220861838015,-1006.5680776161463 -1191.2918552884364,-1055.392489352601 -1147.8293446474045,-1102.5050506119028 -1102.5050506119032,-1147.8293446474042 -1055.3924893526018,-1191.2918552884357 -1006.5680776161472,-1232.8220861838006 -956.1110087769188,-1272.352675147118 -904.1031243850906,-1309.8195034185292 -850.6287814193306,-1345.161799665568 -795.7747154594774,-1378.32223855448 -739.6299000011104,-1409.2470337321247 -682.2854021402193,-1437.8860250676353 -623.8342348620341,-1464.192760012337 -564.3712061736278,-1488.12456894595 -503.992765324981,-1509.6426343868682 -442.7968463679457,-1528.7120539542582 -380.8827093068538,-1545.3018969798475 -318.3507790984326,-1559.3852546775815 -255.30248276214925,-1570.9392837897738 -191.8400848652201,-1579.945243638953 -128.06652164910565,-1586.38852652531 -64.08523406655634,-1590.2586814204408 -0.00000000000029236288743895315,-1591.5494309189535"/>
</edges>
