<?xml version="1.0" encoding="UTF-8"?>

<!-- generated on Sat Apr 10 07:59:02 2021 by Eclipse SUMO netconvert Version v1_8_0+1999-a6fe61a
<configuration xmlns:xsi="http://www.w3.org/2001/XMLSchema-instance" xsi:noNamespaceSchemaLocation="http://sumo.dlr.de/xsd/netconvertConfiguration.xsd">

    <input>
        <sumo-net-file value="net.net.xml"/>
    </input>

    <output>
        <output-file value="net2.net.xml"/>
    </output>

    <projection>
        <proj.scale value="0.6"/>
    </projection>

    <processing>
        <geometry.min-radius.fix.railways value="false"/>
        <geometry.max-grade.fix value="false"/>
        <offset.disable-normalization value="true"/>
        <lefthand value="false"/>
    </processing>

    <junctions>
        <no-turnarounds value="true"/>
        <junctions.corner-detail value="0"/>
        <junctions.limit-turn-speed value="-1"/>
        <rectangular-lane-cut value="false"/>
    </junctions>

    <pedestrian>
        <walkingareas value="false"/>
    </pedestrian>

    <report>
        <aggregate-warnings value="5"/>
    </report>

</configuration>
-->

<net version="1.9" xmlns:xsi="http://www.w3.org/2001/XMLSchema-instance" xsi:noNamespaceSchemaLocation="http://sumo.dlr.de/xsd/net_file.xsd">

    <location netOffset="1589.00,1511.23" convBoundary="0.00,0.00,192.70,183.27" origBoundary="-1589.00,-1511.23,1589.00,1511.23" projParameter="!"/>

    <edge id=":8/1_0" function="internal">
        <lane id=":8/1_0_0" index="0" speed="30.00" length="1.02" shape="65.64,-1.29 65.89,-1.46 66.08,-1.56 66.28,-1.59 66.58,-1.60"/>
    </edge>
    <edge id=":9/1_0" function="internal">
        <lane id=":9/1_0_0" index="0" speed="30.00" length="1.02" shape="126.12,-1.60 126.42,-1.59 126.63,-1.56 126.81,-1.46 127.06,-1.29"/>
    </edge>

    <edge id="a" from="9/1" to="8/1" priority="-1" shape="126.12,0.00 174.29,35.00 192.70,91.64 174.29,148.27 126.12,183.27 66.58,183.27 18.40,148.27 0.00,91.64 18.40,35.00 66.58,0.00">
        <lane id="a_0" index="0" speed="30.00" length="544.25" shape="127.06,-1.29 175.65,34.02 194.38,91.64 175.65,149.25 126.64,184.87 66.06,184.87 17.04,149.25 -1.68,91.64 17.04,34.02 65.64,-1.29"/>
    </edge>
    <edge id="b" from="8/1" to="9/1" priority="-1">
        <lane id="b_0" index="0" speed="30.00" length="59.54" shape="66.58,-1.60 126.12,-1.60"/>
    </edge>

    <junction id="8/1" type="priority" x="66.58" y="0.00" incLanes="a_0" intLanes=":8/1_0_0" shape="66.58,0.00 66.58,-3.20 64.70,-2.59">
        <request index="0" response="0" foes="0" cont="0"/>
    </junction>
    <junction id="9/1" type="priority" x="126.12" y="0.00" incLanes="b_0" intLanes=":9/1_0_0" shape="126.12,0.00 128.00,-2.59 126.12,-3.20">
        <request index="0" response="0" foes="0" cont="0"/>
    </junction>

    <connection from="a" to="b" fromLane="0" toLane="0" via=":8/1_0_0" dir="s" state="M"/>
    <connection from="b" to="a" fromLane="0" toLane="0" via=":9/1_0_0" dir="s" state="M"/>

    <connection from=":8/1_0" to="b" fromLane="0" toLane="0" dir="s" state="M"/>
    <connection from=":9/1_0" to="a" fromLane="0" toLane="0" dir="s" state="M"/>

</net>
