<?xml version="1.0" encoding="UTF-8"?>

<!-- generated on Sat Apr 10 08:00:30 2021 by Eclipse SUMO netconvert Version v1_8_0+1999-a6fe61a
<configuration xmlns:xsi="http://www.w3.org/2001/XMLSchema-instance" xsi:noNamespaceSchemaLocation="http://sumo.dlr.de/xsd/netconvertConfiguration.xsd">

    <input>
        <sumo-net-file value="net.net.xml"/>
    </input>

    <output>
        <output-file value="net10k.net.xml"/>
    </output>

    <projection>
        <proj.scale value="10"/>
    </projection>

    <processing>
        <geometry.min-radius.fix.railways value="false"/>
        <geometry.max-grade.fix value="false"/>
        <offset.disable-normalization value="true"/>
        <lefthand value="false"/>
    </processing>

    <junctions>
        <no-turnarounds value="true"/>
        <junctions.corner-detail value="0"/>
        <junctions.limit-turn-speed value="-1"/>
        <rectangular-lane-cut value="false"/>
    </junctions>

    <pedestrian>
        <walkingareas value="false"/>
    </pedestrian>

    <report>
        <aggregate-warnings value="5"/>
    </report>

</configuration>
-->

<net version="1.9" xmlns:xsi="http://www.w3.org/2001/XMLSchema-instance" xsi:noNamespaceSchemaLocation="http://sumo.dlr.de/xsd/net_file.xsd">

    <location netOffset="1589.00,1511.23" convBoundary="0.00,0.00,3211.70,3054.50" origBoundary="-1589.00,-1511.23,1589.00,1511.23" projParameter="!"/>

    <edge id=":8/1_0" function="internal">
        <lane id=":8/1_0_0" index="0" speed="30.00" length="1.02" shape="1108.76,-1.29 1109.01,-1.46 1109.19,-1.56 1109.40,-1.59 1109.70,-1.60"/>
    </edge>
    <edge id=":9/1_0" function="internal">
        <lane id=":9/1_0_0" index="0" speed="30.00" length="1.02" shape="2102.00,-1.60 2102.30,-1.59 2102.51,-1.56 2102.69,-1.46 2102.94,-1.29"/>
    </edge>

    <edge id="a" from="9/1" to="8/1" priority="-1" shape="2102.00,0.00 2904.90,583.40 3211.70,1527.30 2904.90,2471.10 2102.00,3054.50 1109.70,3054.50 306.70,2471.10 0.00,1527.30 306.70,583.40 1109.70,0.00">
        <lane id="a_0" index="0" speed="30.00" length="8940.46" shape="2102.94,-1.29 2906.26,582.41 3213.38,1527.30 2906.26,2472.09 2102.52,3056.10 1109.18,3056.10 305.34,2472.09 -1.68,1527.30 305.34,582.41 1108.76,-1.29"/>
    </edge>
    <edge id="b" from="8/1" to="9/1" priority="-1">
        <lane id="b_0" index="0" speed="30.00" length="992.30" shape="1109.70,-1.60 2102.00,-1.60"/>
    </edge>

    <junction id="8/1" type="priority" x="1109.70" y="0.00" incLanes="a_0" intLanes=":8/1_0_0" shape="1109.70,0.00 1109.70,-3.20 1107.82,-2.59">
        <request index="0" response="0" foes="0" cont="0"/>
    </junction>
    <junction id="9/1" type="priority" x="2102.00" y="0.00" incLanes="b_0" intLanes=":9/1_0_0" shape="2102.00,0.00 2103.88,-2.59 2102.00,-3.20">
        <request index="0" response="0" foes="0" cont="0"/>
    </junction>

    <connection from="a" to="b" fromLane="0" toLane="0" via=":8/1_0_0" dir="s" state="M"/>
    <connection from="b" to="a" fromLane="0" toLane="0" via=":9/1_0_0" dir="s" state="M"/>

    <connection from=":8/1_0" to="b" fromLane="0" toLane="0" dir="s" state="M"/>
    <connection from=":9/1_0" to="a" fromLane="0" toLane="0" dir="s" state="M"/>

</net>
